216

Ni -4.18634 -4.18634 -4.18634
Ni -4.18634 -2.09317 -2.09317
Ni -2.09317 -4.18634 -2.09317
Ni -2.09317 -2.09317 -4.18634
O -2.09317 -4.18634 -4.18634
O -2.09317 -2.09317 -2.09317
O -4.18634 -4.18634 -2.09317
O -4.18634 -2.09317 -4.18634
Ni -4.18634 -4.18634 -0.00000
Ni -4.18634 -2.09317  2.09317
Ni -2.09317 -4.18634  2.09317
Ni -2.09317 -2.09317 -0.00000
O -2.09317 -4.18634 -0.00000
O -2.09317 -2.09317  2.09317
O -4.18634 -4.18634  2.09317
O -4.18634 -2.09317 -0.00000
Ni -4.18634 -4.18634  4.18634
Ni -4.18634 -2.09317  6.27951
Ni -2.09317 -4.18634  6.27951
Ni -2.09317 -2.09317  4.18634
O -2.09317 -4.18634  4.18634
O -2.09317 -2.09317  6.27951
O -4.18634 -4.18634  6.27951
O -4.18634 -2.09317  4.18634
Ni -4.18634  0.00000 -4.18634
Ni -4.18634  2.09317 -2.09317
Ni -2.09317  0.00000 -2.09317
Ni -2.09317  2.09317 -4.18634
O -2.09317  0.00000 -4.18634
O -2.09317  2.09317 -2.09317
O -4.18634  0.00000 -2.09317
O -4.18634  2.09317 -4.18634
Ni -4.18634  0.00000 -0.00000
Ni -4.18634  2.09317  2.09317
Ni -2.09317  0.00000  2.09317
Ni -2.09317  2.09317  0.00000
O -2.09317  0.00000 -0.00000
O -2.09317  2.09317  2.09317
O -4.18634  0.00000  2.09317
O -4.18634  2.09317 -0.00000
Ni -4.18634  0.00000  4.18634
Ni -4.18634  2.09317  6.27951
Ni -2.09317  0.00000  6.27951
Ni -2.09317  2.09317  4.18634
O -2.09317  0.00000  4.18634
O -2.09317  2.09317  6.27951
O -4.18634  0.00000  6.27951
O -4.18634  2.09317  4.18634
Ni -4.18634  4.18634 -4.18634
Ni -4.18634  6.27951 -2.09317
Ni -2.09317  4.18634 -2.09317
Ni -2.09317  6.27951 -4.18634
O -2.09317  4.18634 -4.18634
O -2.09317  6.27951 -2.09317
O -4.18634  4.18634 -2.09317
O -4.18634  6.27951 -4.18634
Ni -4.18634  4.18634  0.00000
Ni -4.18634  6.27951  2.09317
Ni -2.09317  4.18634  2.09317
Ni -2.09317  6.27951  0.00000
O -2.09317  4.18634  0.00000
O -2.09317  6.27951  2.09317
O -4.18634  4.18634  2.09317
O -4.18634  6.27951  0.00000
Ni -4.18634  4.18634  4.18634
Ni -4.18634  6.27951  6.27951
Ni -2.09317  4.18634  6.27951
Ni -2.09317  6.27951  4.18634
O -2.09317  4.18634  4.18634
O -2.09317  6.27951  6.27951
O -4.18634  4.18634  6.27951
O -4.18634  6.27951  4.18634
Ni  0.00000 -4.18634 -4.18634
Ni  0.00000 -2.09317 -2.09317
Ni  2.09317 -4.18634 -2.09317
Ni  2.09317 -2.09317 -4.18634
O  2.09317 -4.18634 -4.18634
O  2.09317 -2.09317 -2.09317
O  0.00000 -4.18634 -2.09317
O  0.00000 -2.09317 -4.18634
Ni  0.00000 -4.18634 -0.00000
Ni  0.00000 -2.09317  2.09317
Ni  2.09317 -4.18634  2.09317
Ni  2.09317 -2.09317  0.00000
O  2.09317 -4.18634 -0.00000
O  2.09317 -2.09317  2.09317
O  0.00000 -4.18634  2.09317
O  0.00000 -2.09317 -0.00000
Ni  0.00000 -4.18634  4.18634
Ni  0.00000 -2.09317  6.27951
Ni  2.09317 -4.18634  6.27951
Ni  2.09317 -2.09317  4.18634
O  2.09317 -4.18634  4.18634
O  2.09317 -2.09317  6.27951
O  0.00000 -4.18634  6.27951
O  0.00000 -2.09317  4.18634
Ni  0.00000  0.00000 -4.18634
Ni -0.00000  2.09317 -2.09317
Ni  2.09317  0.00000 -2.09317
Ni  2.09317  2.09317 -4.18634
O  2.09317  0.00000 -4.18634
O  2.09317  2.09317 -2.09317
O  0.00000  0.00000 -2.09317
O -0.00000  2.09317 -4.18634
Ni  0.00000  0.00000  0.00000
Ni -0.00000  2.09317  2.09317
Ni  2.09317  0.00000  2.09317
Ni  2.09317  2.09317  0.00000
O  2.09317  0.00000  0.00000
O  2.09317  2.09317  2.09317
O  0.00000  0.00000  2.09317
O -0.00000  2.09317  0.00000
Ni  0.00000  0.00000  4.18634
Ni -0.00000  2.09317  6.27951
Ni  2.09317  0.00000  6.27951
Ni  2.09317  2.09317  4.18634
O  2.09317  0.00000  4.18634
O  2.09317  2.09317  6.27951
O  0.00000  0.00000  6.27951
O -0.00000  2.09317  4.18634
Ni -0.00000  4.18634 -4.18634
Ni -0.00000  6.27951 -2.09317
Ni  2.09317  4.18634 -2.09317
Ni  2.09317  6.27951 -4.18634
O  2.09317  4.18634 -4.18634
O  2.09317  6.27951 -2.09317
O -0.00000  4.18634 -2.09317
O -0.00000  6.27951 -4.18634
Ni -0.00000  4.18634  0.00000
Ni -0.00000  6.27951  2.09317
Ni  2.09317  4.18634  2.09317
Ni  2.09317  6.27951  0.00000
O  2.09317  4.18634  0.00000
O  2.09317  6.27951  2.09317
O -0.00000  4.18634  2.09317
O -0.00000  6.27951  0.00000
Ni -0.00000  4.18634  4.18634
Ni -0.00000  6.27951  6.27951
Ni  2.09317  4.18634  6.27951
Ni  2.09317  6.27951  4.18634
O  2.09317  4.18634  4.18634
O  2.09317  6.27951  6.27951
O -0.00000  4.18634  6.27951
O -0.00000  6.27951  4.18634
Ni  4.18634 -4.18634 -4.18634
Ni  4.18634 -2.09317 -2.09317
Ni  6.27951 -4.18634 -2.09317
Ni  6.27951 -2.09317 -4.18634
O  6.27951 -4.18634 -4.18634
O  6.27951 -2.09317 -2.09317
O  4.18634 -4.18634 -2.09317
O  4.18634 -2.09317 -4.18634
Ni  4.18634 -4.18634  0.00000
Ni  4.18634 -2.09317  2.09317
Ni  6.27951 -4.18634  2.09317
Ni  6.27951 -2.09317  0.00000
O  6.27951 -4.18634  0.00000
O  6.27951 -2.09317  2.09317
O  4.18634 -4.18634  2.09317
O  4.18634 -2.09317  0.00000
Ni  4.18634 -4.18634  4.18634
Ni  4.18634 -2.09317  6.27951
Ni  6.27951 -4.18634  6.27951
Ni  6.27951 -2.09317  4.18634
O  6.27951 -4.18634  4.18634
O  6.27951 -2.09317  6.27951
O  4.18634 -4.18634  6.27951
O  4.18634 -2.09317  4.18634
Ni  4.18634  0.00000 -4.18634
Ni  4.18634  2.09317 -2.09317
Ni  6.27951  0.00000 -2.09317
Ni  6.27951  2.09317 -4.18634
O  6.27951  0.00000 -4.18634
O  6.27951  2.09317 -2.09317
O  4.18634  0.00000 -2.09317
O  4.18634  2.09317 -4.18634
Ni  4.18634  0.00000  0.00000
Ni  4.18634  2.09317  2.09317
Ni  6.27951  0.00000  2.09317
Ni  6.27951  2.09317  0.00000
O  6.27951  0.00000  0.00000
O  6.27951  2.09317  2.09317
O  4.18634  0.00000  2.09317
O  4.18634  2.09317  0.00000
Ni  4.18634  0.00000  4.18634
Ni  4.18634  2.09317  6.27951
Ni  6.27951  0.00000  6.27951
Ni  6.27951  2.09317  4.18634
O  6.27951  0.00000  4.18634
O  6.27951  2.09317  6.27951
O  4.18634  0.00000  6.27951
O  4.18634  2.09317  4.18634
Ni  4.18634  4.18634 -4.18634
Ni  4.18634  6.27951 -2.09317
Ni  6.27951  4.18634 -2.09317
Ni  6.27951  6.27951 -4.18634
O  6.27951  4.18634 -4.18634
O  6.27951  6.27951 -2.09317
O  4.18634  4.18634 -2.09317
O  4.18634  6.27951 -4.18634
Ni  4.18634  4.18634  0.00000
Ni  4.18634  6.27951  2.09317
Ni  6.27951  4.18634  2.09317
Ni  6.27951  6.27951  0.00000
O  6.27951  4.18634  0.00000
O  6.27951  6.27951  2.09317
O  4.18634  4.18634  2.09317
O  4.18634  6.27951  0.00000
Ni  4.18634  4.18634  4.18634
Ni  4.18634  6.27951  6.27951
Ni  6.27951  4.18634  6.27951
Ni  6.27951  6.27951  4.18634
O  6.27951  4.18634  4.18634
O  6.27951  6.27951  6.27951
O  4.18634  4.18634  6.27951
O  4.18634  6.27951  4.18634
